cigre_lv_residential/opendss/cigre_lv_VLN_Node.Txt

LINE-GROUND and LINE-LINE VOLTAGES BY BUS & NODE

Bus       Node    VLN (kV)   Angle      pu     Base kV    Node-Node   VLL (kV)  Angle      pu

SOURCEBUS 1       66.395 /_    0.0     287.5     0.400        1-2        115 /_   30.0     287.5
   -      2       66.395 /_ -120.0     287.5     0.400        2-3        115 /_  -90.0     287.5
   -      3       66.395 /_  120.0     287.5     0.400        3-1        115 /_  150.0     287.5
R1 ...... 1            0 /_    0.0         0     0.400        1-2          0 /_    0.0         0
   -      2            0 /_    0.0         0     0.400        2-3          0 /_    0.0         0
   -      3            0 /_    0.0         0     0.400        3-1          0 /_    0.0         0
   -      4            0 /_    0.0         0     0.400
R10 ..... 1            0 /_    0.0         0     0.400        1-2          0 /_    0.0         0
   -      2            0 /_    0.0         0     0.400        2-3          0 /_    0.0         0
   -      3            0 /_    0.0         0     0.400        3-1          0 /_    0.0         0
   -      4            0 /_    0.0         0     0.400
2 ....... 1            0 /_    0.0         0     0.400        1-2          0 /_    0.0         0
   -      2            0 /_    0.0         0     0.400        2-3          0 /_    0.0         0
   -      3            0 /_    0.0         0     0.400        3-1          0 /_    0.0         0
